36
         -65.993241108935          0.000498188080
C           1.07912777909219   -0.78097693920639    1.13528175981491
O           1.84603979093997   -0.41335945917627    0.01195015547844
C           2.26425420359960   -1.37326945783203   -0.84334084340817
C           3.02122015777368   -0.92524885605799   -1.93480253796951
C           3.49591905829273   -1.81369810128804   -2.86526606994195
C           3.23150598622139   -3.18638784925022   -2.73532256367734
C           2.47311639177199   -3.62943141740257   -1.64141881074125
C           1.99525504612546   -2.73801092193285   -0.70883306968520
N           3.73742933642856   -4.00129858606840   -3.71364952798694
N           3.53076377071972   -5.25851285946740   -3.57586685602322
C           3.99809475316626   -6.03183737094888   -4.58587307064546
N           3.93589144379969   -7.34935241152279   -4.48976670007762
C           4.56019309989709   -5.66427476378399   -5.86328945604696
C           4.89047229530440   -4.53523132753065   -6.60257720840488
N           5.41886145290487   -4.66748636716653   -7.80555173102482
C           5.61497214518818   -5.89148109485101   -8.28567715947508
N           5.34201089395027   -7.04208619542124   -7.70352571144495
C           4.81776250246040   -6.90677710503722   -6.49318834992439
N           4.42385565071420   -7.88050156499253   -5.61827394642162
C           4.47854156934828   -9.24990439693574   -5.77477891625660
C           4.08748022247280  -10.24205527556536   -4.91635868085157
C           4.37362336255553  -11.44992572417811   -5.59383254570817
C           4.90854620622714  -11.09622851675937   -6.79468169458383
O           4.97599388796390   -9.75692206396983   -6.91170182294679
H           0.86565915478743    0.14799715839181    1.66135431932690
H           1.63425951881508   -1.45245377722111    1.79739075784986
H           0.13761911370242   -1.25406506520223    0.84015527394846
H           3.21504170245906    0.13258172500559   -2.01700277122568
H           4.07973021501349   -1.47656085230471   -3.70734633417563
H           2.27513857751789   -4.68676120927273   -1.55256240524666
H           1.41345890401798   -3.10601369316394    0.12217226690034
H           4.73454673166061   -3.53112046036965   -6.23365848726759
H           6.04901973172393   -5.95069758156324   -9.27476411972888
H           3.65961057193103  -10.10625789168032   -3.94630998439545
H           4.20223541545167  -12.44241883733210   -5.23186873741083
H           5.26731935599773  -11.67494088894935   -7.62160442063096
